feeder-models/OpenDSS/Feeder 2/Lines.dss
New "Line.Line1132" phases=3 length=67.056 linecode=1000_AL_XLP_3 normamps=525 emergamps=600 faultrate=0 repair=0 r1=7.1333E-005 r0=0.001193903 x1=0.000118993 x0=0.001328181 C1=0.0341761 C0=0.0341761 units=m bus1=b_15.1.2.3 bus2=b_14.1.2.3
New "Line.Line937" phases=3 linecode=3S_477_AAC_3 emergamps=600 faultrate=4.8606136E-005 repair=3.7 normamps=530.00 length=3339.389 r1=0.0001181214 r0=0.0005162814 x1=0.0003196931 x0=0.001461205 C1=0.0341761 C0=0.0341761 units=m bus1=b_14.1.2.3 bus2=b_7.1.2.3
New "Line.Line489" phases=3 linecode=3S_477_AAC_3 normamps=530 emergamps=600 faultrate=4.8606136E-005 repair=3.7 length=259.3848 r1=0.000118123 r0=0.0005162969 x1=0.000319695 x0=0.001461216 C1=0.0341761 C0=0.0341761 units=m bus1=b_7.1.2.3 bus2=b_4.1.2.3
New "Line.Line425" phases=3 linecode=3S_477_AAC_3 emergamps=600 faultrate=4.8606136E-005 repair=3.7 normamps=530.00 length=2185.111 r1=0.0002736189 r0=0.0006685028 x1=0.0004004244 x0=0.001506882 C1=0.0341761 C0=0.0341761 units=m bus1=b_4.1.2.3 bus2=b_6.1.2.3
New "Line.Line777" phases=3 linecode=3S_336_4_AL_3 emergamps=600 faultrate=4.8606136E-005 repair=3.7 normamps=425.00 length=623.0112 r1=0.0001732583 r0=0.0005348146 x1=0.0003717223 x0=0.00131447 C1=0.0341761 C0=0.0341761 units=m bus1=b_6.1.2.3 bus2=b_12.1.2.3
New "Line.Line775" phases=3 linecode=3S_336_4_AAC_3 normamps=425 emergamps=600 faultrate=4.8606136E-005 repair=3.7 length=1061.314 r1=0.000167158 r0=0.0005649899 x1=0.0003314873 x0=0.00147452 C1=0.0341761 C0=0.0341761 units=m bus1=b_6.1.2.3 bus2=b_8.1.2.3
New "Line.Line687" phases=3 linecode=3S_336_4_AAC_3 normamps=425 emergamps=600 faultrate=4.8606136E-005 repair=3.7 length=745.236 r1=0.000167183 r0=0.0005617232 x1=0.0003340223 x0=0.001476135 C1=0.0341761 C0=0.0341761 units=m bus1=b_8.1.2.3 bus2=b_11.1.2.3
New "Line.Line718" phases=3 linecode=3S_336_4_AAC_3 normamps=425 emergamps=600 faultrate=4.8606136E-005 repair=3.7 length=1407.871 r1=0.0001670246 r0=0.0005628342 x1=0.0003328687 x0=0.001479543 C1=0.0341761 C0=0.0341761 units=m bus1=b_11.1.2.3 bus2=b_2.1.2.3
New "Line.Line369" phases=3 linecode=3S_336_4_AAC_3 emergamps=600 faultrate=4.8606136E-005 repair=3.7 normamps=425.00 length=5012.741 r1=0.0002631377 r0=0.0006660566 x1=0.0003883231 x0=0.001428533 C1=0.0341761 C0=0.0341761 units=m bus1=b_2.1.2.3 bus2=b_3.1.2.3
New "Line.Line491" phases=3 linecode=3S_477_AAC_3 normamps=530 emergamps=600 faultrate=4.8606136E-005 repair=3.7 length=3555.187 r1=0.0001181207 r0=0.0005161311 x1=0.0003196924 x0=0.001461123 C1=0.0341761 C0=0.0341761 units=m bus1=b_8.1.2.3 bus2=b_9.1.2.3
New "Line.Line614" phases=1 linecode=1A_1/0_AL_1 emergamps=600 faultrate=4.8606136E-005 repair=3.7 normamps=230.00 length=1515.161 r1=0.001074502 r0=0.001074502 x1=0.0006992756 x0=0.0006992756 C1=0.0341761 C0=0.0341761 units=m bus1=b_9.3 bus2=b_10.3
New "Line.Line405" phases=3 linecode=3P_336_4_AAC_3 emergamps=600 faultrate=4.8606136E-005 repair=3.7 normamps=515.00 length=735.1776 r1=0.0001736172 r0=0.0005584416 x1=0.0004067343 x0=0.001284475 C1=0.0341761 C0=0.0341761 units=m bus1=b_4.1.2.3 bus2=b_5.1.2.3
New "Line.Line809" phases=3 linecode=3P_336_4_AL_3 emergamps=600 faultrate=4.8606136E-005 repair=3.7 normamps=515.00 length=2529.23 r1=0.0002709616 r0=0.0006137313 x1=0.000418777 x0=0.001303692 C1=0.0341761 C0=0.0341761 units=m bus1=b_5.1.2.3 bus2=b_13.1.2.3
